DM122_polarH
  PyMOL2.3          3D                             0

 23 26  0  0  0  0  0  0  0  0999 V2000
   -6.6690    0.1920    5.1600 C   0  0  0  0  0  0  0  0  0  0  0  0
   -6.5430    1.0150    6.2990 C   0  0  0  0  0  0  0  0  0  0  0  0
   -5.3850    1.8000    6.4910 C   0  0  0  0  0  0  0  0  0  0  0  0
   -4.3350    1.7670    5.5500 C   0  0  0  0  0  0  0  0  0  0  0  0
   -4.4680    0.9420    4.4160 C   0  0  0  0  0  0  0  0  0  0  0  0
   -5.6170    0.1670    4.2250 C   0  0  0  0  0  0  0  0  0  0  0  0
   -3.5100    0.7600    3.3190 C   0  0  0  0  0  0  0  0  0  0  0  0
   -4.2380   -0.2000    2.4600 C   0  0  0  0  0  0  0  0  0  0  0  0
   -5.4680   -0.5460    3.0370 C   0  0  0  0  0  0  0  0  0  0  0  0
   -3.8220   -0.7790    1.2340 C   0  0  0  0  0  0  0  0  0  0  0  0
   -4.6680   -1.7520    0.6420 C   0  0  0  0  0  0  0  0  0  0  0  0
   -5.8920   -2.1230    1.2440 C   0  0  0  0  0  0  0  0  0  0  0  0
   -6.3100   -1.5020    2.4400 C   0  0  0  0  0  0  0  0  0  0  0  0
   -2.5820   -0.4370    0.6270 C   0  0  0  0  0  0  0  0  0  0  0  0
   -1.5970   -1.4240    0.4040 C   0  0  0  0  0  0  0  0  0  0  0  0
   -0.3570   -1.0630   -0.1560 C   0  0  0  0  0  0  0  0  0  0  0  0
   -0.0840    0.2360   -0.4930 N   0  0  0  0  0  0  0  0  0  0  0  0
   -1.0330    1.2050   -0.3020 C   0  0  0  0  0  0  0  0  0  0  0  0
    1.1900    0.5770   -1.0770 C   0  0  0  0  0  0  0  0  0  0  0  0
   -2.2910    0.8910    0.2440 C   0  0  0  0  0  0  0  0  0  0  0  0
   -6.6540   -3.0870    0.6880 N   0  0  0  0  0  0  0  0  0  0  0  0
   -6.3650   -3.5260   -0.1290 H   0  0  0  0  0  0  0  0  0  0  0  0
   -7.4890   -3.3500    1.1060 H   0  0  0  0  0  0  0  0  0  0  0  0
  1  2  4  0  0  0  0
  1  6  4  0  0  0  0
  2  3  4  0  0  0  0
  3  4  4  0  0  0  0
  4  5  4  0  0  0  0
  5  6  4  0  0  0  0
  5  7  4  0  0  0  0
  6  9  4  0  0  0  0
  7  8  4  0  0  0  0
  8  9  4  0  0  0  0
  8 10  4  0  0  0  0
  9 13  4  0  0  0  0
 10 11  4  0  0  0  0
 10 14  1  0  0  0  0
 11 12  4  0  0  0  0
 12 13  4  0  0  0  0
 12 21  1  0  0  0  0
 14 15  4  0  0  0  0
 14 20  4  0  0  0  0
 15 16  4  0  0  0  0
 16 17  4  0  0  0  0
 17 18  4  0  0  0  0
 17 19  1  0  0  0  0
 18 20  4  0  0  0  0
 21 22  1  0  0  0  0
 21 23  1  0  0  0  0
M  END
$$$$
